/*--------------------------------*- C++ -*----------------------------------*\
| =========                 |                                                 |
| \\      /  F ield         | OpenFOAM: The Open Source CFD Toolbox           |
|  \\    /   O peration     | Version:  2.4.0                                 |
|   \\  /    A nd           | Web:      www.OpenFOAM.org                      |
|    \\/     M anipulation  |                                                 |
\*---------------------------------------------------------------------------*/
FoamFile
{
    version     2.0;
    format      ascii;
    class       dictionary;
    location    "constant";
    object      particleProperties;
}
// * * * * * * * * * * * * * * * * * * * * * * * * * * * * * * * * * * * * * //

active                                   yes;
InjectionModel                           PatchInjection;
DragModel                                SphereDrag;
DispersionModel                          none;
PatchInteractionModel                    LocalInteraction;
PostProcessingModel                      PatchPostProcessing;
parcelBasisType                          fixed;
parcelTypeId                             2;
coupled                                  true;
cellValueSourceCorrection                on;

constantProperties
{
    rho0            1000;

    alphaMax        0.9;
}

particleForces
{
    gravity         on;
    virtualMass     off;
    pressureGradient off;
}

constantProperties{
    rhoMin          rhoMin [ 1 -3 0 0 0 ] 1e-15;

    // Minimum particle mass
    minParticleMass      minParticleMass     [ 1  0  0  0  0]     1.0e-15;

    // Parcel thermo properties
    rho0      rho0     [ 1 -3  0  0  0]      5000;
}

interpolationSchemes
{
    rho             cell;
    U               cellPoint;
    mu              cell;
}

integrationSchemes
{
        U               Euler;
}

PatchInjectionCoeffs
{   
   type            patchInjection;
   parcelBasisType mass;
   patchName       inlet;
   U0              (0 0 0);
   volumeFlowRate  constant 0.01;
   nParticle       1;
   parcelsPerSecond 1390885;
   sizeDistribution
            {
                type        normal;
                normalDistribution
                {
                    expectation 650e-6;
                    variance 25e-6;
                    minValue 500e-6;
                    maxValue 800e-6;
                }
            }
   massTotal  massTotal [ 1  0  0  0  0]    2.0e-4;
   SOI        0.2;
   duration   60;
   parcelPDF
           {
               pdfType     RosinRammler;
               RosinRammlerPDF
                {
                   minValue    50.0e-06;
                   maxValue    100.0e-06;
                  d            (75.0e-06);
                  n            (0.5);
                }
           }
}

LocalInteractionCoeffs
{
        patches
        (
            front
            {
                type rebound;
                e    1;
                mu   0;
            }
            back
            {
                type rebound;
                e    1;
                mu   0;
            }
            top
            {
                type rebound;
                e    1;
                mu   0;
            }
            bottom
            {
                type rebound;
                e    1;
                mu   0;
            }

            body
            {
                type rebound;
                e    1;
                mu   0;
            }

            outlet
            {
                type escape;
            }
        );
}

PatchPostProcessingCoeffs
{
    maxStoredParcels 10000;
    patches
    (
            inlet 
            outlet
        
    );
}








